[TITLE]                  
Scenario: Base                   
                   
Date: 6/2/2014 4:57:00 PM                   
                   
[JUNCTIONS]                  
 21                                  758.3000                  
 19                                  749.1300                  
 17                                  742.0200                  
 15                                  741.8500                  
 13                                  756.9500                  
 11                                  741.4100                  
 9                                   740.2900                  
 6                                   725.6500                  
 5                                   725.0300                  
 3                                   741.1200                  
 1                                   738.5800                  
 52                                  758.3000                  
 20                                  741.4100                  
 18                                  740.2900                  
 16                                  725.6500                  
 14                                  725.0300                  
 12                                  738.5800                  
 10                                  749.1300                  
 8                                   741.8500                  
 7                                   742.0200                  
 4                                   756.9500                  
 2                                   741.1200                  
 DMA4700_SubashnagarExOHT            725.6500                  
 DMA4748A_RajendranagarExOHT         741.4100                  
 DMA4748_RajendranagarNewOHT         740.2900                  
 DMA4600_KesareExOHT                 725.0300                  
 DMA4150_VeeranagereExOHT            749.1300                  
 DMA4849_NRMohallaExOHT              742.0200                  
 DMA4950_NRMohallaNewOHT             741.8500                  
 DMA5200_UdayagiriNewOHT             741.1200                  
 DMA5300RajivnagarIIStageExOHT       738.5800                  
 DVRJ-11                             748.0000                  
 DVRJ-8                              755.0000                  
 DMA5400_RajivnagarIStageNewOHT      756.9500                  
 DVRJ-4                              725.3833                  
 DVRJ-1                              757.5000                  
 DVRJ-2                              757.5000                  
 DVRJ-3                              757.5000                  
 DVRJ-5                              735.7379                  
 DVRJ-6                              740.5861                  
 DVRJ-12                             748.2321                  
 DVRJ-13                             736.8587                  
 DVRJ-10                             740.7845                  
 DVRJ-7                              756.9000                  
 DVRJ-9                              738.3145                  
 301-B                               758.6660                  
 22                                  756.9000                  
[RESERVOIRS]                  
[TANKS]                  
 34                                  758.3000      20.7384      18.0000      24.0000      14.5000    2972.3393                   
 Rajendra_nagar2                     741.4100      14.7423      12.0000      18.0000      14.5000    1981.5596                   
 Rajendra_nagar1                     740.2900      15.0998      12.0000      18.5000      17.0000    2723.7608                   
 Bademakan                           725.6500      14.7669      12.0000      18.0000      10.3000     999.8747                   
 Kesare                              725.0300      14.7750      12.0000      18.0000      10.3000     999.8747                   
 Rajiv_nagar_II                      738.5800      17.8941      15.0000      21.0000      14.5000    2476.9495                   
 Veeranageeri                        749.1300      14.5518      12.0000      18.0000      10.3000     999.8747                   
 NR_mohalla2                         742.0200      11.9345       9.0000      15.0000       7.3000     376.6848                   
 NR_mohalla1                         741.8500      17.7616      15.0000      21.0000      14.5000    2476.9495                   
 Rajiv_nagar_I                       756.9500      12.1603       9.0000      15.5000      17.0000    2042.8206                   
 Tippu_park                          741.1200      17.7168      15.0000      21.0000      14.5000    2476.9495                   
[PIPES]                  
 DVRTMP23                        DVRJ-7                          DMA5400_RajivnagarIStageNewOHT       14.2251     300.0000     130.0000       0.0000                   
 DVRTMP4                         DVRJ-3                          DVRJ-7                              686.5232     575.0000     130.0000       0.0000                   
 84                              21                              34                                   10.0000     500.0000     130.0000       0.0000                   
 79                              19                              Veeranageeri                         10.0000     300.0000     130.0000       0.0000                   
 77                              17                              NR_mohalla2                        1000.0000     250.0000     100.0000       0.0000                   
 75                              15                              NR_mohalla1                          10.0000     350.0000     130.0000       0.0000                   
 73                              13                              Rajiv_nagar_I                        10.0000     300.0000     130.0000       0.0000                   
 71                              11                              Rajendra_nagar2                      10.0000     250.0000     130.0000       0.0000                   
 69                              9                               Rajendra_nagar1                      10.0000     350.0000     130.0000       0.0000                   
 67                              6                               Bademakan                            10.0000     150.0000     130.0000       0.0000                   
 64                              5                               Kesare                               10.0000     200.0000     130.0000       0.0000                   
 55                              3                               Tippu_park                           10.0000     250.0000     130.0000       0.0000                   
 11                              1                               Rajiv_nagar_II                       10.0000     300.0000     130.0000       0.0000                   
 20                              Rajendra_nagar2                 20                                   10.0000     250.0000     130.0000       0.0000                   
 18                              Rajendra_nagar1                 18                                   10.0000     350.0000     130.0000       0.0000                   
 16                              Bademakan                       16                                   10.0000     150.0000     130.0000       0.0000                   
 14                              Kesare                          14                                   10.0000     200.0000     130.0000       0.0000                   
 12                              Rajiv_nagar_II                  12                                   10.0000     300.0000     130.0000       0.0000                   
 10                              Veeranageeri                    10                                   10.0000     300.0000     130.0000       0.0000                   
 8                               NR_mohalla2                     7                                    10.0000     250.0000     130.0000       0.0000                   
 7                               NR_mohalla1                     8                                    10.0000     350.0000     130.0000       0.0000                   
 1                               Rajiv_nagar_I                   4                                  1000.0000     300.0000     130.0000       0.0000                   
 2                               Tippu_park                      2                                    10.0000     150.0000     130.0000       0.0000                   
 DVRTMP18                        DVRJ-11                         DVRJ-12                             122.0032     373.0000     130.0000       0.0000                   
 DVRTMP17                        DVRJ-10                         DVRJ-11                            1209.0282     474.0000     130.0000       0.0000                   
 DVRTMP14                        DVRJ-8                          DVRJ-9                              728.0893     474.0000     130.0000       0.0000                   
 DVRTMP13                        22                              DVRJ-8                              606.5000     575.0000     130.0000       0.0000                   
 DVRTMP10                        DVRJ-5                          DMA4700_SubashnagarExOHT            713.5138     150.0000     130.0000       0.0000                   
 DVRTMP9                         DVRJ-5                          DMA4600_KesareExOHT                 988.8729     200.0000     130.0000       0.0000                   
 DVRTMP8                         DVRJ-4                          DVRJ-5                             2115.0328     250.0000     130.0000       0.0000                   
 DVRTMP7                         DVRJ-4                          DMA5300RajivnagarIIStageExOHT       329.4624     300.0000     130.0000       0.0000                   
 DVRTMP6                         DVRJ-1                          DVRJ-4                              886.3253     350.0000     130.0000       0.0000                   
 DVRTMP1                         34                              DVRJ-1                               14.1633     350.0000     130.0000       0.0000                   
 DVRTMP2                         34                              DVRJ-2                               12.4691     350.0000     130.0000       0.0000                   
 DVRTMP3                         34                              DVRJ-3                               14.7513     500.0000     130.0000       0.0000                   
 DVRTMP12                        DVRJ-6                          DMA4748A_RajendranagarExOHT          48.4590     250.0000     130.0000       0.0000                   
 DVRTMP11                        DVRJ-6                          DMA4748_RajendranagarNewOHT          29.7381     350.0000     130.0000       0.0000                   
 DVRTMP5                         DVRJ-2                          DVRJ-6                             3246.1668     424.0000     130.0000       0.0000                   
 DVRTMP19                        DVRJ-12                         DMA4150_VeeranagereExOHT            496.7409     300.0000     130.0000       0.0000                   
 DVRTMP22                        DVRJ-13                         DMA4950_NRMohallaNewOHT             192.0028     350.0000     130.0000       0.0000                   
 DVRTMP21                        DVRJ-13                         DMA4849_NRMohallaExOHT              177.7480     250.0000     130.0000       0.0000                   
 DVRTMP20                        DVRJ-10                         DVRJ-13                            1302.7449     424.0000     130.0000       0.0000                   
 DVRTMP15                        DVRJ-9                          DVRJ-10                             396.8439     474.0000     130.0000       0.0000                   
 DVRTMP16                        DVRJ-9                          DMA5200_UdayagiriNewOHT             538.5485     250.0000     130.0000       0.0000                   
[PUMPS]                  
 62                              301-B                           52                               HEAD 62                  
 61                              301-B                           52                               HEAD 61                  
 60                              301-B                           52                               HEAD 60                  
[VALVES]                  
 80                              52                              21                                  500.0000   FCV       0.0000       0.0000                  
 78                              DMA4150_VeeranagereExOHT        19                                  300.0000   FCV      37.0000       0.0000                  
 76                              DMA4849_NRMohallaExOHT          17                                  250.0000   FCV      29.0000       0.0000                  
 74                              DMA4950_NRMohallaNewOHT         15                                  350.0000   FCV      68.2000       0.0000                  
 72                              DMA5400_RajivnagarIStageNewOHT  13                                  300.0000   FCV      56.5000       0.0000                  
 70                              DMA4748A_RajendranagarExOHT     11                                  250.0000   FCV      33.4400       0.0000                  
 68                              DMA4748_RajendranagarNewOHT     9                                   350.0000   FCV      38.0000       0.0000                  
 66                              DMA4700_SubashnagarExOHT        6                                   150.0000   FCV      17.9000       0.0000                  
 65                              DMA4600_KesareExOHT             5                                   200.0000   FCV      24.0000       0.0000                  
 40                              DMA5200_UdayagiriNewOHT         3                                   250.0000   FCV      44.0000       0.0000                  
 35                              DMA5300RajivnagarIIStageExOHT   1                                   300.0000   FCV      23.3000       0.0000                  
 3                               DVRJ-7                          22                                  575.0000   FCV     154.5308       0.0000                  
[DEMANDS]                  
 21                                    0.000000                   
 19                                    0.000000                   
 17                                    0.000000                   
 15                                    0.000000                   
 13                                    0.000000                   
 11                                    0.000000                   
 9                                     0.000000                   
 6                                     0.000000                   
 5                                     0.000000                   
 3                                     0.000000                   
 1                                     0.000000                   
 52                                    0.000000                   
 20                                   34.020000    Peak2.5                  
 18                                   39.600000    Peak2.5                  
 16                                    9.900000    Peak2.5                  
 14                                   14.400000    Peak2.5                  
 12                                   19.620000    Peak2.5                  
 10                                   28.125000    Peak2.5                  
 8                                    56.970000    Peak2.5                  
 7                                    14.400000    Peak2.5                  
 4                                    79.830000    Peak2.5                  
 2                                    37.500000    Peak2.5                  
 DMA4700_SubashnagarExOHT              0.000000                   
 DMA4748A_RajendranagarExOHT           0.000000                   
 DMA4748_RajendranagarNewOHT           0.000000                   
 DMA4600_KesareExOHT                   0.000000                   
 DMA4150_VeeranagereExOHT              0.000000                   
 DMA4849_NRMohallaExOHT                0.000000                   
 DMA4950_NRMohallaNewOHT               0.000000                   
 DMA5200_UdayagiriNewOHT               0.000000                   
 DMA5300RajivnagarIIStageExOHT         0.000000                   
 DVRJ-11                               0.000000                   
 DVRJ-8                                0.000000                   
 DMA5400_RajivnagarIStageNewOHT        0.000000                   
 DVRJ-4                                0.000000                   
 DVRJ-1                                0.000000                   
 DVRJ-2                                0.000000                   
 DVRJ-3                                0.000000                   
 DVRJ-5                                0.000000                   
 DVRJ-6                                0.000000                   
 DVRJ-12                               0.000000                   
 DVRJ-13                               0.000000                   
 DVRJ-10                               0.000000                   
 DVRJ-7                                0.000000                   
 DVRJ-9                                0.000000                   
 301-B                              -334.000000                   
 22                                    0.000000                   
[EMITTERS]                  
[STATUS]                  
 61                              closed                  
 80                              open                  
[PATTERNS]                  
 Peak2.5                               0.2000       0.2000       0.2000       0.2000       0.4000       1.0000                  
 Peak2.5                               2.0000       2.5000       2.5000       2.0000       1.0000       1.0000                  
 Peak2.5                               0.8000       0.8000       1.0000       0.6000       0.8000       1.0000                  
 Peak2.5                               1.5000       1.5000       1.0000       0.8000       0.6000       0.4000                  
[CURVES]
 62                                  150.0000      30.0000
                  
 62E                                 150.0000      75.0000
                  
 61                                  150.0000      30.0000
                  
 61E                                 150.0000      75.0000
                  
 60                                  150.0000      30.0000
                  
 60E                                 150.0000      75.0000
                  
 59                                  170.0000      30.0000
                  
 59E                                 170.0000      75.0000
                  
 58                                  170.0000      30.0000
                  
 58E                                 170.0000      75.0000
                  
 56                                  170.0000      30.0000
                  
 56E                                 170.0000      75.0000
                  
 23                                  578.0000      98.0000
                  
 23E                                 578.0000      75.0000
                  
 22                                  578.0000      98.0000
                  
 22E                                 578.0000      75.0000
                  
 21                                  578.0000      98.0000
                  
 21E                                 578.0000      75.0000
                  
[CONTROLS]                  
[QUALITY]                  
[SOURCES]                  
[MIXING]                  
 34                              MIXED          1.0000                  
 Rajendra_nagar2                 MIXED          1.0000                  
 Rajendra_nagar1                 MIXED          1.0000                  
 Bademakan                       MIXED          1.0000                  
 Kesare                          MIXED          1.0000                  
 Rajiv_nagar_II                  MIXED          1.0000                  
 Veeranageeri                    MIXED          1.0000                  
 NR_mohalla2                     MIXED          1.0000                  
 NR_mohalla1                     MIXED          1.0000                  
 Rajiv_nagar_I                   MIXED          1.0000                  
 Tippu_park                      MIXED          1.0000                  
[REACTIONS]                  
 ORDER  BULK            1.00                  
 ORDER  WALL            1                  
 ORDER  TANK            1.00                  
 GLOBAL BULK            0.000000                  
 GLOBAL WALL            0.000000                  
[ENERGY]                  
 GLOBAL EFFIC        75.0000                  
 DEMAND CHARGE       0.0000                  
 PUMP 62                              EFFIC   62E                  
 PUMP 61                              EFFIC   61E                  
 PUMP 60                              EFFIC   60E                  
[TIMES]                  
 DURATION            0:00:00                  
 HYDRAULIC TIMESTEP  0:05:00                  
 QUALITY TIMESTEP    0:00:30                  
 REPORT TIMESTEP     1:00:00                  
 REPORT START        0:00:00                  
 PATTERN TIMESTEP    1:00:00                  
 PATTERN START       0:00:00                  
 RULE TIMESTEP       0:00:30                  
 START CLOCKTIME     0:00:00                  
 STATISTIC           NONE                  
[OPTIONS]                  
 UNITS               LPS                  
 PRESSURE            METERS                  
 HEADLOSS            H-W                  
 UNBALANCED          CONTINUE 10                  
 QUALITY             NONE                  
 DEMAND MULTIPLIER   1.0000                  
 EMITTER EXPONENT    0.5000                  
 VISCOSITY           1.000000                  
 DIFFUSIVITY         1.000000                  
 SPECIFIC GRAVITY    0.998000                  
 TRIALS              40                  
 ACCURACY            0.00100000                  
 TOLERANCE           0.01000000                  
 CHECKFREQ           2                  
 MAXCHECK            10                  
 DAMPLIMIT           0.00000000                  
[REPORT]                  
 PAGESIZE            0                  
 STATUS              NO                  
 SUMMARY             NO                  
 ENERGY              NO                  
 NODES               NONE                  
 LINKS               NONE                  
 Elevation           NO                  
 Demand              PRECISION 2                  
 Head                PRECISION 2                  
 Pressure            PRECISION 2                  
 Quality             NO                  
 Length              NO                  
 Diameter            NO                  
 Flow                PRECISION 2                  
 Velocity            PRECISION 2                  
 Headloss            PRECISION 2                  
 Quality             NO                  
 State               NO                  
 Setting             NO                  
 Reaction            NO                  
[TAGS]                  
[RULES]                  
[COORDINATES]                  
;Node            	X-Coord         	Y-Coord                  
 21              	683775.78       	1364232.75                        
 19              	680530.24       	1362861.11                        
 17              	680942.27       	1363555.84                        
 15              	681027.12       	1363560.83                        
 13              	683561.70       	1363641.21                        
 11              	680749.02       	1363915.99                        
 9               	680851.66       	1364017.69                        
 6               	680366.21       	1363801.66                        
 5               	681302.03       	1365039.92                        
 3               	682034.22       	1363374.75                        
 1               	683017.57       	1364826.34                        
 52              	683795.12       	1364220.26                        
 20              	680582.03       	1364013.81                        
 18              	680831.28       	1364134.28                        
 16              	680128.69       	1363800.36                        
 14              	681524.61       	1365124.34                        
 12              	683013.18       	1364978.27                        
 10              	680519.96       	1362952.77                        
 8               	681049.68       	1363639.16                        
 7               	680921.81       	1363637.05                        
 4               	683631.37       	1363607.16                        
 2               	682177.18       	1363561.79                        
 DMA4700_SubashnagarExOHT	680506.73       	1363811.27                        
 DMA4748A_RajendranagarExOHT	680881.10       	1363850.04                        
 DMA4748_RajendranagarNewOHT	680885.68       	1363896.99                        
 DMA4600_KesareExOHT	681284.19       	1364886.37                        
 DMA4150_VeeranagereExOHT	680553.45       	1362825.38                        
 DMA4849_NRMohallaExOHT	680985.89       	1363525.17                        
 DMA4950_NRMohallaNewOHT	680995.26       	1363523.67                        
 DMA5200_UdayagiriNewOHT	682075.43       	1363290.23                        
 DMA5300RajivnagarIIStageExOHT	683015.05       	1364752.43                        
 DVRJ-11         	680993.70       	1362403.83                        
 DVRJ-8          	683074.72       	1363421.51                        
 DMA5400_RajivnagarIStageNewOHT	683540.10       	1363669.48                        
 DVRJ-4          	682987.95       	1364456.82                        
 DVRJ-1          	683769.88       	1364166.12                        
 DVRJ-2          	683779.08       	1364166.61                        
 DVRJ-3          	683787.47       	1364169.16                        
 DVRJ-5          	680995.79       	1363990.61                        
 DVRJ-6          	680901.47       	1363882.04                        
 DVRJ-12         	680920.16       	1362500.96                        
 DVRJ-13         	681053.38       	1363384.67                        
 DVRJ-10         	682078.71       	1362907.60                        
 DVRJ-7          	683536.45       	1363683.25                        
 DVRJ-9          	682420.94       	1363106.44                        
 301-B           	683895.95       	1364226.27                        
 22              	683526.48       	1363682.21                        
 34              	683763.92       	1364235.67                        
 Rajendra_nagar2 	680731.58       	1363932.81                        
 Rajendra_nagar1 	680843.74       	1364044.97                        
 Bademakan       	680325.05       	1363800.36                        
 Kesare          	681305.42       	1365124.34                        
 Rajiv_nagar_II 	683017.16       	1364857.36                        
 Veeranageeri    	680521.36       	1362882.52                        
 NR_mohalla2     	680927.43       	1363578.04                        
 NR_mohalla1     	681044.76       	1363578.04                        
 Rajiv_nagar_I   	683578.96       	1363633.19                        
 Tippu_park      	682024.45       	1363432.19                        
[VERTICES]                  
;Link            	X-Coord         	Y-Coord                  
 DVRTMP4         	683789.27       	1364130.31                        
 DVRTMP4         	683725.40       	1364110.79                        
 DVRTMP4         	683576.54       	1363867.43                        
 DVRTMP4         	683654.52       	1363717.55                        
 DVRTMP4         	683651.31       	1363714.17                        
 DVRTMP4         	683618.33       	1363695.64                        
 DVRTMP4         	683604.03       	1363688.87                        
 DVRTMP4         	683598.56       	1363686.72                        
 DVRTMP4         	683588.61       	1363686.04                        
 DVRTMP4         	683576.38       	1363683.34                        
 DVRTMP18        	680989.23       	1362407.67                        
 DVRTMP18        	680968.53       	1362437.55                        
 DVRTMP18        	680923.38       	1362497.05                        
 DVRTMP17        	682070.23       	1362900.90                        
 DVRTMP17        	681906.47       	1362782.67                        
 DVRTMP17        	681875.47       	1362759.75                        
 DVRTMP17        	681865.46       	1362748.78                        
 DVRTMP17        	681851.32       	1362738.78                        
 DVRTMP17        	681809.85       	1362710.48                        
 DVRTMP17        	681806.34       	1362710.19                        
 DVRTMP17        	681802.28       	1362708.78                        
 DVRTMP17        	681788.69       	1362699.88                        
 DVRTMP17        	681760.91       	1362681.27                        
 DVRTMP17        	681723.44       	1362660.19                        
 DVRTMP17        	681672.70       	1362638.14                        
 DVRTMP17        	681608.11       	1362612.97                        
 DVRTMP17        	681497.43       	1362570.35                        
 DVRTMP17        	681425.81       	1362539.56                        
 DVRTMP17        	681362.63       	1362513.22                        