[TITLE]
Scenario: Base 
Date: 6/2/2014 4:57:00 PM 

[JUNCTIONS]
;ID              	Elev        	Demand      	Pattern         
 21              	758.3       	0           	                	;
 19              	749.13      	0           	                	;
 17              	742.02      	0           	                	;
 15              	741.85      	0           	                	;
 13              	756.95      	0           	                	;
 11              	741.41      	0           	                	;
 9               	740.29      	0           	                	;
 6               	725.65      	0           	                	;
 5               	725.03      	0           	                	;
 3               	741.12      	0           	                	;
 1               	738.58      	0           	                	;
 52              	758.3       	0           	                	;
 20              	741.41      	34.02       	Peak2.4         	;
 18              	740.29      	39.6          	Peak2.4         	;
 16              	725.65      	9.9           	Peak2.4         	;
 14              	725.03      	14.4          	Peak2.4         	;
 12              	738.58      	19.62       	Peak2.4       	                	;
 10              	749.13      	28.125         	Peak2.4         	;
 8               	741.85      	56.97        	Peak2.4         	;
 7               	742.02      	14.4          	Peak2.4         	;
 4               	756.95      	79.83         	Peak2.4         	;
 2               	741.12      	37.5         	Peak2.4         	;
 DMA4700_SubashnagarExOHT	725.65      	0           	                	;
 DMA4748A_RajendranagarExOHT	741.41      	0           	                	;
 DMA4748_RajendranagarNewOHT	740.29      	0           	                	;
 DMA4600_KesareExOHT	725.03      	0           	                	;
 DMA4150_VeeranagereExOHT	749.13      	0           	                	;
 DMA4849_NRMohallaExOHT	742.02      	0           	                	;
 DMA4950_NRMohallaNewOHT	741.85      	0           	                	;
 DMA5200_UdayagiriNewOHT	741.12      	0           	                	;
 DMA5300RajivnagarIIStageExOHT	738.58      	0           	                	;
 DVRJ-11         	748         	0           	                	;
 DVRJ-8          	755         	0           	                	;
 DMA5400_RajivnagarIStageNewOHT	756.95      	0           	                	;
 DVRJ-4          	725.38330078125	0           	                	;
 DVRJ-1          	757.5       	0           	                	;
 DVRJ-2          	757.5       	0           	                	;
 DVRJ-3          	757.5       	0           	                	;
 DVRJ-5          	735.737854003906	0           	                	;
 DVRJ-6          	740.586120605469	0           	                	;
 DVRJ-12         	748.232116699219	0           	                	;
 DVRJ-13         	736.858703613281	0           	                	;
 DVRJ-10         	740.784484863281	0           	                	;
 DVRJ-7          	756.9       	0           	                	;
 DVRJ-9          	738.314514160156	0           	                	;
 301-B           	758.665958712697	-334        	                	;
 22              	756.9       	0           	                	;

[RESERVOIRS]
;ID              	Head        	Pattern         

[TANKS]
;ID              	Elevation   	InitLevel   	MinLevel    	MaxLevel    	Diameter    	MinVol      	VolCurve
 34              	758.3       	20.9437        	18          	24          	14.5        	2972.33934937764	                	;
 Rajendra_nagar2 	741.41      	14.9591        	12          	18          	14.5        	1981.55956625176	                	;
 Rajendra_nagar1 	740.29      	15.2625     	12.0000000000001	18.5        	17          	2723.76083066235	                	;
 Bademakan       	725.65      	14.8427        	12          	18          	10.3        	999.874693858024	                	;
 Kesare          	725.03      	14.8129     	12          	17.9999999999999	10.3        	999.874693858024	                	;
 Rajiv_nagar_II		738.58      	17.9718        	15          	21          	14.5        	2476.9494578147	                	;
 Veeranageeri    	749.13      	14.9003        	11.9999999999999	18          	10.3        	999.874693858024	                	;
 NR_mohalla2     	742.02      	12.0135        	9           	15          	7.3         	376.68481314705	                	;
 NR_mohalla1     	741.85      	17.9257        	15          	21          	14.5        	2476.9494578147	                	;
 Rajiv_nagar_I   	756.95      	12.2469        	9           	15.5        	17          	2042.82062299676	                	;
 Tippu_park      	741.12      	17.9783       	15          	21          	14.5        	2476.9494578147	                	;

[PIPES]
;ID              	Node1           	Node2           	Length      	Diameter    	Roughness   	MinorLoss   	Status
 DVRTMP23        	DVRJ-7          	DMA5400_RajivnagarIStageNewOHT	14.2250807730333	300         	130         	0           	Open  	;
 DVRTMP4         	DVRJ-3          	DVRJ-7          	686.523162728496	575         	130         	0           	Open  	;
 84              	21              	34              	10          	500         	130         	0           	Open  	;
 79              	19              	Veeranageeri    	10          	300         	130         	0           	Open  	;
 77              	17              	NR_mohalla2     	1000        	250         	100         	0           	Open  	;
 75              	15              	NR_mohalla1     	10          	350         	130         	0           	Open  	;
 73              	13              	Rajiv_nagar_I   	10          	300         	130         	0           	Open  	;
 71              	11              	Rajendra_nagar2 	10          	250         	130         	0           	Open  	;
 69              	9               	Rajendra_nagar1 	10          	350         	130         	0           	Open  	;
 67              	6               	Bademakan       	10          	150         	130         	0           	Open  	;
 64              	5               	Kesare          	10          	200         	130         	0           	Open  	;
 55              	3               	Tippu_park      	10          	250         	130         	0           	Open  	;
 11              	1               	Rajiv_nagar_II	 	10          	300         	130         	0           	Open  	;
 20              	Rajendra_nagar2 	20              	10          	250         	130         	0           	Open  	;
 18              	Rajendra_nagar1 	18              	10          	350         	130         	0           	Open  	;
 16              	Bademakan       	16              	10          	150         	130         	0           	Open  	;
 14              	Kesare          	14              	10          	200         	130         	0           	Open  	;
 12              	Rajiv_nagar_II	 	12              	10          	300         	130         	0           	Open  	;
 10              	Veeranageeri    	10              	10          	300         	130         	0           	Open  	;
 8               	NR_mohalla2     	7               	10          	250         	130         	0           	Open  	;
 7               	NR_mohalla1     	8               	10          	350         	130         	0           	Open  	;
 1               	Rajiv_nagar_I   	4               	1000        	300         	130         	0           	Open  	;
 2               	Tippu_park      	2               	10          	150         	130         	0           	Open  	;
 DVRTMP18        	DVRJ-11         	DVRJ-12         	122.003156956608	373         	130         	0           	Open  	;
 DVRTMP17        	DVRJ-10         	DVRJ-11         	1209.02815545849	474         	130         	0           	Open  	;
 DVRTMP14        	DVRJ-8          	DVRJ-9          	728.089282727841	474         	130         	0           	Open  	;
 DVRTMP13        	22              	DVRJ-8          	606.50      	575         	130         	0           	Open  	;
 DVRTMP10        	DVRJ-5          	DMA4700_SubashnagarExOHT	713.513847043436	150         	130         	0           	Open  	;
 DVRTMP9         	DVRJ-5          	DMA4600_KesareExOHT	988.872875154693	200         	130         	0           	Open  	;
 DVRTMP8         	DVRJ-4          	DVRJ-5          	2115.0327936	250         	130         	0           	Open  	;
 DVRTMP7         	DVRJ-4          	DMA5300RajivnagarIIStageExOHT	329.462373991546	300         	130         	0           	Open  	;
 DVRTMP6         	DVRJ-1          	DVRJ-4          	886.325324098985	350         	130         	0           	Open  	;
 DVRTMP1         	34              	DVRJ-1          	14.1632677015082	350         	130         	0           	Open  	;
 DVRTMP2         	34              	DVRJ-2          	12.4690734416531	350         	130         	0           	Open  	;
 DVRTMP3         	34              	DVRJ-3          	14.7513166684416	500         	130         	0           	Open  	;
 DVRTMP12        	DVRJ-6          	DMA4748A_RajendranagarExOHT	48.4589877449441	250         	130         	0           	Open  	;
 DVRTMP11        	DVRJ-6          	DMA4748_RajendranagarNewOHT	29.7380671533225	350         	130         	0           	Open  	;
 DVRTMP5         	DVRJ-2          	DVRJ-6          	3246.16684073216	424         	130         	0           	Open  	;
 DVRTMP19        	DVRJ-12         	DMA4150_VeeranagereExOHT	496.74086029739	300         	130         	0           	Open  	;
 DVRTMP22        	DVRJ-13         	DMA4950_NRMohallaNewOHT	192.002838512832	350         	130         	0           	Open  	;
 DVRTMP21        	DVRJ-13         	DMA4849_NRMohallaExOHT	177.747966106501	250         	130         	0           	Open  	;
 DVRTMP20        	DVRJ-10         	DVRJ-13         	1302.74491567486	424         	130         	0           	Open  	;
 DVRTMP15        	DVRJ-9          	DVRJ-10         	396.843852863401	474         	130         	0           	Open  	;
 DVRTMP16        	DVRJ-9          	DMA5200_UdayagiriNewOHT	538.54854369901	250         	130         	0           	Open  	;

[PUMPS]
;ID              	Node1           	Node2           	Parameters
 62              	301-B           	52              	HEAD 62	SPEED 1	;
 61              	301-B           	52              	HEAD 61	SPEED 1	;
 60              	301-B           	52              	HEAD 60	SPEED 1	;

[VALVES]
;ID              	Node1           	Node2           	Diameter    	Type	Setting     	MinorLoss   
 80              	52              	21              	500         	FCV 	220         	0           	;
 78              	DMA4150_VeeranagereExOHT	19              	300         	FCV 	37          	0           	;
 76              	DMA4849_NRMohallaExOHT	17              	250         	FCV 	29          	0           	;
 74              	DMA4950_NRMohallaNewOHT	15              	350         	FCV 	68.2        	0           	;
 72              	DMA5400_RajivnagarIStageNewOHT	13              	300         	FCV 	56.5        	0           	;
 70              	DMA4748A_RajendranagarExOHT	11              	250         	FCV 	33.44       	0           	;
 68              	DMA4748_RajendranagarNewOHT	9               	350         	FCV 	38          	0           	;
 66              	DMA4700_SubashnagarExOHT	6               	150         	FCV 	17.9        	0           	;
 65              	DMA4600_KesareExOHT	5               	200         	FCV 	24          	0           	;
 40              	DMA5200_UdayagiriNewOHT	3               	250         	FCV 	44          	0           	;
 35              	DMA5300RajivnagarIIStageExOHT	1               	300         	FCV 	23.3        	0           	;
 3               	DVRJ-7          	22              	575         	FCV 	154.5308    	0           	;

[TAGS]

[DEMANDS]
;Junction        	Demand      	Pattern         	Category

[STATUS]
;ID              	Status/Setting
 61              	Closed
 80              	Open

[PATTERNS]
;ID              	Multipliers
;
 Peak2.4         	0.3	      	    0.3         	0.35         	0.31         	0.3         	0.83           
 Peak2.4         	1.57           	2.16         	2.39         	2.16           	1.5           	1.19           
 Peak2.4         	1.07         	1.02         	0.95           	0.92         	0.93         	0.94           
 Peak2.4         	1.01         	0.99         	1           	0.93         	0.52         	0.35         
          

[CURVES]
;ID              	X-Value     	Y-Value
;PUMP: PUMP: PUMP:
 62              	150         	30          
;PUMP: PUMP: EFFICIENCY:
 62E             	150         	75          
;PUMP: PUMP: PUMP:
 61              	150         	30          
;PUMP: PUMP: EFFICIENCY:
 61E             	150         	75          
;PUMP: PUMP: PUMP:
 60              	150         	30          
;PUMP: PUMP: EFFICIENCY:
 60E             	150         	75          
;PUMP: PUMP: PUMP:
 59              	170         	30          
;PUMP: PUMP: EFFICIENCY:
 59E             	170         	75          
;PUMP: PUMP: PUMP:
 58              	170         	30          
;PUMP: PUMP: EFFICIENCY:
 58E             	170         	75          
;PUMP: PUMP: PUMP:
 56              	170         	30          
;PUMP: PUMP: EFFICIENCY:
 56E             	170         	75          
;PUMP: PUMP: PUMP:
 23              	578         	98          
;PUMP: PUMP: EFFICIENCY:
 23E             	578         	75          
;PUMP: PUMP: PUMP:
 22              	578         	98          
;PUMP: PUMP: EFFICIENCY:
 22E             	578         	75          
;PUMP: PUMP: PUMP:
 21              	578         	98          
;PUMP: PUMP: EFFICIENCY:
 21E             	578         	75          

[CONTROLS]


[RULES]


[ENERGY]
 Global Efficiency  	75
 Global Price       	0
 Demand Charge      	0
 Pump 	62              	Efficiency	62E
 Pump 	61              	Efficiency	61E
 Pump 	60              	Efficiency	60E

[EMITTERS]
;Junction        	Coefficient

[QUALITY]
;Node            	InitQual

[SOURCES]
;Node            	Type        	Quality     	Pattern

[REACTIONS]
;Type     	Pipe/Tank       	Coefficient


[REACTIONS]
 Order Bulk            	1
 Order Tank            	1
 Order Wall            	1
 Global Bulk           	0
 Global Wall           	0
 Limiting Potential    	0
 Roughness Correlation 	0

[MIXING]
;Tank            	Model

[TIMES]
 Duration           	0:00 
 Hydraulic Timestep 	0:05 
 Quality Timestep   	0:00 
 Pattern Timestep   	1:00 
 Pattern Start      	0:00 
 Report Timestep    	1:00 
 Report Start       	0:00 
 Start ClockTime    	12 am
 Statistic          	NONE

[REPORT]
 Status             	No
 Summary            	No
 Page               	0

[OPTIONS]
 Units              	LPS
 Headloss           	H-W
 Specific Gravity   	0.998
 Viscosity          	1
 Trials             	40
 Accuracy           	0.001
 CHECKFREQ          	2
 MAXCHECK           	10
 DAMPLIMIT          	0
 Unbalanced         	Continue 10
 Pattern            	1
 Demand Multiplier  	1
 Emitter Exponent   	0.5
 Quality            	NONE mg/L
 Diffusivity        	1
 Tolerance          	0.01

[COORDINATES]
;Node            	X-Coord         	Y-Coord
 21              	683775.78       	1364232.75      
 19              	680530.24       	1362861.11      
 17              	680942.27       	1363555.84      
 15              	681027.12       	1363560.83      
 13              	683561.70       	1363641.21      
 11              	680749.02       	1363915.99      
 9               	680851.66       	1364017.69      
 6               	680366.21       	1363801.66      
 5               	681302.03       	1365039.92      
 3               	682034.22       	1363374.75      
 1               	683017.57       	1364826.34      
 52              	683795.12       	1364220.26      
 20              	680582.03       	1364013.81      
 18              	680831.28       	1364134.28      
 16              	680128.69       	1363800.36      
 14              	681524.61       	1365124.34      
 12              	683013.18       	1364978.27      
 10              	680519.96       	1362952.77      
 8               	681049.68       	1363639.16      
 7               	680921.81       	1363637.05      
 4               	683631.37       	1363607.16      
 2               	682177.18       	1363561.79      
 DMA4700_SubashnagarExOHT	680506.73       	1363811.27      
 DMA4748A_RajendranagarExOHT	680881.10       	1363850.04      
 DMA4748_RajendranagarNewOHT	680885.68       	1363896.99      
 DMA4600_KesareExOHT	681284.19       	1364886.37      
 DMA4150_VeeranagereExOHT	680553.45       	1362825.38      
 DMA4849_NRMohallaExOHT	680985.89       	1363525.17      
 DMA4950_NRMohallaNewOHT	680995.26       	1363523.67      
 DMA5200_UdayagiriNewOHT	682075.43       	1363290.23      
 DMA5300RajivnagarIIStageExOHT	683015.05       	1364752.43      
 DVRJ-11         	680993.70       	1362403.83      
 DVRJ-8          	683074.72       	1363421.51      
 DMA5400_RajivnagarIStageNewOHT	683540.10       	1363669.48      
 DVRJ-4          	682987.95       	1364456.82      
 DVRJ-1          	683769.88       	1364166.12      
 DVRJ-2          	683779.08       	1364166.61      
 DVRJ-3          	683787.47       	1364169.16      
 DVRJ-5          	680995.79       	1363990.61      
 DVRJ-6          	680901.47       	1363882.04      
 DVRJ-12         	680920.16       	1362500.96      
 DVRJ-13         	681053.38       	1363384.67      
 DVRJ-10         	682078.71       	1362907.60      
 DVRJ-7          	683536.45       	1363683.25      
 DVRJ-9          	682420.94       	1363106.44      
 301-B           	683895.95       	1364226.27      
 22              	683526.48       	1363682.21      
 34              	683763.92       	1364235.67      
 Rajendra_nagar2 	680731.58       	1363932.81      
 Rajendra_nagar1 	680843.74       	1364044.97      
 Bademakan       	680325.05       	1363800.36      
 Kesare          	681305.42       	1365124.34      
 Rajiv_nagar_II 	683017.16       	1364857.36      
 Veeranageeri    	680521.36       	1362882.52      
 NR_mohalla2     	680927.43       	1363578.04      
 NR_mohalla1     	681044.76       	1363578.04      
 Rajiv_nagar_I   	683578.96       	1363633.19      
 Tippu_park      	682024.45       	1363432.19      

[VERTICES]
;Link            	X-Coord         	Y-Coord
 DVRTMP4         	683789.27       	1364130.31      
 DVRTMP4         	683725.40       	1364110.79      
 DVRTMP4         	683576.54       	1363867.43      
 DVRTMP4         	683654.52       	1363717.55      
 DVRTMP4         	683651.31       	1363714.17      
 DVRTMP4         	683618.33       	1363695.64      
 DVRTMP4         	683604.03       	1363688.87      
 DVRTMP4         	683598.56       	1363686.72      
 DVRTMP4         	683588.61       	1363686.04      
 DVRTMP4         	683576.38       	1363683.34      
 DVRTMP18        	680989.23       	1362407.67      
 DVRTMP18        	680968.53       	1362437.55      
 DVRTMP18        	680923.38       	1362497.05      
 DVRTMP17        	682070.23       	1362900.90      
 DVRTMP17        	681906.47       	1362782.67      
 DVRTMP17        	681875.47       	1362759.75      
 DVRTMP17        	681865.46       	1362748.78      
 DVRTMP17        	681851.32       	1362738.78      
 DVRTMP17        	681809.85       	1362710.48      
 DVRTMP17        	681806.34       	1362710.19      
 DVRTMP17        	681802.28       	1362708.78      
 DVRTMP17        	681788.69       	1362699.88      
 DVRTMP17        	681760.91       	1362681.27      
 DVRTMP17        	681723.44       	1362660.19      
 DVRTMP17        	681672.70       	1362638.14      
 DVRTMP17        	681608.11       	1362612.97      
 DVRTMP17        	681497.43       	1362570.35      
 DVRTMP17        	681425.81       	1362539.56      
 DVRTMP17        	681362.63       	1362513.22      
 DVRTMP17        	681323.11       	1362498.34      
 DVRTMP17        	681275.06       	1362480.29      
 DVRTMP17        	681249.69       	1362471.99      
 DVRTMP17        	681143.34       	1362443.70      
 DVRTMP17        	681042.38       	1362417.64      
 DVRTMP14        	683046.19       	1363405.54      
 DVRTMP14        	682982.21       	1363376.62      
 DVRTMP14        	682903.98       	1363349.90      
 DVRTMP14        	682855.61       	1363330.68      
 DVRTMP14        	682822.35       	1363318.95      
 DVRTMP14        	682744.96       	1363289.43      
 DVRTMP14        	682715.83       	1363276.56      
 DVRTMP14        	682590.39       	1363206.11      
 DVRTMP14        	682464.25       	1363129.22      
 DVRTMP13        	683525.27       	1363681.92      
 DVRTMP13        	683524.77       	1363668.96      
 DVRTMP13        	683523.32       	1363643.24      
 DVRTMP13        	683523.42       	1363630.72      
 DVRTMP13        	683537.97       	1363566.00      
 DVRTMP13        	683273.49       	1363505.98      
 DVRTMP13        	683229.20       	1363492.41      
 DVRTMP13        	683136.35       	1363453.92      
 DVRTMP13        	683079.40       	1363423.96      
 DVRTMP10        	680995.27       	1363988.09      
 DVRTMP10        	680997.11       	1363986.89      
 DVRTMP10        	680996.63       	1363982.82      
 DVRTMP10        	680994.39       	1363981.94      
 DVRTMP10        	680989.12       	1363982.10      
 DVRTMP10        	680988.24       	1363980.58      
 DVRTMP10        	680936.34       	1363758.43      
 DVRTMP10        	680761.00       	1363777.13      
 DVRTMP10        	680727.77       	1363785.36      
 DVRTMP10        	680645.14       	1363790.24      
 DVRTMP10        	680610.99       	1363790.85      
 DVRTMP10        	680554.27       	1363789.02      
 DVRTMP10        	680507.93       	1363783.53      
 DVRTMP10        	680495.73       	1363797.86      
 DVRTMP9         	680991.30       	1363999.47      
 DVRTMP9         	681015.71       	1364219.21      
 DVRTMP9         	681021.20       	1364265.86      
 DVRTMP9         	681025.77       	1364269.52      
 DVRTMP9         	681034.92       	1364322.88      
 DVRTMP9         	681046.20       	1364418.01      
 DVRTMP9         	681049.56       	1364425.64      
 DVRTMP9         	681089.50       	1364498.20      
 DVRTMP9         	681117.86       	1364548.21      
 DVRTMP9         	681144.08       	1364590.29      
 DVRTMP9         	681183.11       	1364650.05      
 DVRTMP9         	681203.23       	1364683.90      
 DVRTMP9         	681216.65       	1364714.69      
 DVRTMP9         	681224.88       	1364742.74      
 DVRTMP9         	681235.25       	1364786.65      
 DVRTMP9         	681241.65       	1364834.52      
 DVRTMP9         	681249.10       	1364888.70      
 DVRTMP8         	682983.31       	1364457.08      
 DVRTMP8         	682970.57       	1364444.09      
 DVRTMP8         	682950.33       	1364430.72      
 DVRTMP8         	682821.65       	1364367.31      
 DVRTMP8         	682628.41       	1364271.19      
 DVRTMP8         	682608.59       	1364261.28      
 DVRTMP8         	682481.29       	1364193.44      
 DVRTMP8         	682354.37       	1364129.79      
 DVRTMP8         	682326.16       	1364120.26      
 DVRTMP8         	682308.31       	1364115.22      
 DVRTMP8         	682273.98       	1364101.99      
 DVRTMP8         	682043.06       	1364013.50      
 DVRTMP8         	682035.05       	1364008.04      
 DVRTMP8         	681963.83       	1363966.28      
 DVRTMP8         	681953.68       	1363962.57      
 DVRTMP8         	681933.97       	1363957.89      
 DVRTMP8         	681899.82       	1363952.62      
 DVRTMP8         	681836.59       	1363945.79      
 DVRTMP8         	681785.47       	1363936.42      
 DVRTMP8         	681732.19       	1363930.57      
 DVRTMP8         	681678.92       	1363927.25      
 DVRTMP8         	681610.23       	1363927.25      
 DVRTMP8         	681552.46       	1363930.76      
 DVRTMP8         	681531.58       	1363929.59      
 DVRTMP8         	681510.31       	1363926.66      
 DVRTMP8         	681486.31       	1363929.40      
 DVRTMP8         	681009.61       	1363988.76      
 DVRTMP7         	683042.55       	1364753.77      
 DVRTMP6         	683772.50       	1364141.26      
 DVRTMP6         	683702.59       	1364123.73      
 DVRTMP6         	683585.81       	1364180.31      
 DVRTMP6         	683391.07       	1364282.74      
 DVRTMP6         	683294.59       	1364328.00      
 DVRTMP6         	683188.40       	1364365.61      
 DVRTMP12        	680894.19       	1363847.64      
 DVRTMP11        	680903.61       	1363893.26      
 DVRTMP5         	683781.38       	1364134.29      
 DVRTMP5         	683731.55       	1364122.47      
 DVRTMP5         	683716.48       	1364116.91      
 DVRTMP5         	683674.93       	1364047.73      
 DVRTMP5         	683567.27       	1363872.24      
 DVRTMP5         	683554.86       	1363885.05      
 DVRTMP5         	683541.60       	1363895.78      
 DVRTMP5         	683534.76       	1363900.46      
 DVRTMP5         	683523.45       	1363905.34      
 DVRTMP5         	683508.23       	1363909.63      
 DVRTMP5         	683493.20       	1363910.42      
 DVRTMP5         	683429.77       	1363910.35      
 DVRTMP5         	683315.41       	1363908.21      
 DVRTMP5         	683124.05       	1363904.84      
 DVRTMP5         	683106.17       	1363905.20      
 DVRTMP5         	683095.19       	1363907.16      
 DVRTMP5         	682952.74       	1363937.04      
 DVRTMP5         	682809.43       	1363967.53      
 DVRTMP5         	682647.52       	1364002.59      
 DVRTMP5         	682348.21       	1364065.81      
 DVRTMP5         	682321.10       	1364115.30      
 DVRTMP5         	682309.98       	1364113.42      
 DVRTMP5         	682061.65       	1364016.89      
 DVRTMP5         	682042.56       	1364009.98      
 DVRTMP5         	681968.54       	1363965.77      
 DVRTMP5         	681955.20       	1363960.05      
 DVRTMP5         	681938.43       	1363956.24      
 DVRTMP5         	681908.70       	1363951.29      
 DVRTMP5         	681835.52       	1363942.90      
 DVRTMP5         	681820.87       	1363939.67      
 DVRTMP5         	681798.51       	1363935.80      
 DVRTMP5         	681775.28       	1363932.80      
 DVRTMP5         	681742.68       	1363929.18      
 DVRTMP5         	681691.35       	1363925.43      
 DVRTMP5         	681655.14       	1363924.31      
 DVRTMP5         	681615.05       	1363924.81      
 DVRTMP5         	681597.19       	1363925.06      
 DVRTMP5         	681576.33       	1363927.06      
 DVRTMP5         	681558.59       	1363928.18      
 DVRTMP5         	681553.35       	1363928.68      
 DVRTMP5         	681529.49       	1363927.43      
 DVRTMP5         	681509.39       	1363924.06      
 DVRTMP5         	680987.11       	1363985.72      
 DVRTMP5         	680984.84       	1363984.66      
 DVRTMP5         	680959.05       	1363867.61      
 DVRTMP5         	680906.61       	1363881.27      
 DVRTMP19        	680862.65       	1362583.76      
 DVRTMP19        	680792.81       	1362642.49      
 DVRTMP19        	680573.30       	1362816.22      
 DVRTMP19        	680558.02       	1362817.13      
 DVRTMP22        	681057.08       	1363394.27      
 DVRTMP22        	681083.94       	1363418.63      
 DVRTMP22        	681001.42       	1363528.66      
 DVRTMP21        	680965.67       	1363507.26      
 DVRTMP20        	682043.54       	1362969.59      
 DVRTMP20        	682015.71       	1363019.90      
 DVRTMP20        	681982.55       	1363087.36      
 DVRTMP20        	681968.54       	1363250.48      
 DVRTMP20        	681961.19       	1363249.54      
 DVRTMP20        	681777.35       	1363230.52      
 DVRTMP20        	681771.25       	1363229.04      
 DVRTMP20        	681745.64       	1363227.33      
 DVRTMP20        	681731.98       	1363228.06      
 DVRTMP20        	681701.24       	1363232.21      
 DVRTMP20        	681621.06       	1363254.79      
 DVRTMP20        	681527.69       	1363278.13      
 DVRTMP20        	681440.48       	1363300.09      
 DVRTMP20        	681302.62       	1363339.45      
 DVRTMP20        	681287.25       	1363343.60      
 DVRTMP20        	681243.83       	1363351.40      
 DVRTMP20        	681168.46       	1363365.31      
 DVRTMP20        	681065.77       	1363382.62      
 DVRTMP15        	682412.78       	1363101.89      
 DVRTMP15        	682313.61       	1363054.21      
 DVRTMP15        	682225.57       	1363004.66      
 DVRTMP15        	682170.18       	1362973.92      
 DVRTMP15        	682154.93       	1362964.39      
 DVRTMP15        	682134.89       	1362947.77      
 DVRTMP16        	682405.10       	1363105.42      
 DVRTMP16        	682259.75       	1363373.03      
 DVRTMP16        	682083.80       	1363275.49      
 62              	683815.12       	1364207.28      
 61              	683816.57       	1364215.05      
 60              	683817.71       	1364228.46      
 80              	683785.45       	1364226.51      
 78              	680541.85       	1362843.25      
 76              	680964.08       	1363540.51      
 74              	681011.19       	1363542.25      
 72              	683550.90       	1363655.35      
 70              	680815.06       	1363883.02      
 68              	680868.67       	1363957.34      
 66              	680436.47       	1363806.47      
 65              	681293.11       	1364963.15      
 40              	682054.83       	1363332.49      
 35              	683016.31       	1364789.39      
 3               	683527.28       	1363682.29      

[LABELS]
;X-Coord           Y-Coord          Label & Anchor Node

[BACKDROP]