[TITLE]
Scenario: Base 
Date: 6/2/2014 4:57:00 PM 

[PATTERNS]
Peak2.5 0.2 0.2 0.2 0.2 0.4 1 2 2.5 2.5 2 1 1 0.8 0.8 1 0.6 0.8 1 1.5 1.5 1 0.8 0.6 0.4 0.2 0.2 0.2 0.2 0.4 1 2 2.5 2.5 2 1 1 0.8 0.8 1 0.6 0.8 1 1.5 1.5 1 0.8 0.6 0.4  

[CURVES]
;PUMP:
62 150 30
;EFFICIENCY:
62E 150 75
;PUMP:
61 150 30
;EFFICIENCY:
61E 150 75
;PUMP:
60 150 30
;EFFICIENCY:
60E 150 75
;PUMP:
59 170 30
;EFFICIENCY:
59E 170 75
;PUMP:
58 170 30
;EFFICIENCY:
58E 170 75
;PUMP:
56 170 30
;EFFICIENCY:
56E 170 75
;PUMP:
23 578 98
;EFFICIENCY:
23E 578 75
;PUMP:
22 578 98
;EFFICIENCY:
22E 578 75
;PUMP:
21 578 98
;EFFICIENCY:
21E 578 75

[JUNCTIONS]
33 787.27 0 
21 758.3 0 
19 749.13 0 
17 742.02 0 
15 741.85 0 
13 756.95 0 
11 741.41 0 
9 740.29 0 
6 725.65 0 
5 725.03 0 
3 741.12 0 
1 738.58 0 
53 782.27 0 
52 758.3 0 
51 787.27 0 
50 762.25 0 
49 767.05 0 
44 774.481 0 
43 764.646 0 
42 760.64 0 
41 758.3 0 
40 747.346 0 
39 769.352 0 
38 758.805 0 
37 759.223 0 
36 752.311 0 
35 0 0 
32 759.459 0 
31 748.94 0 
30 736.477 0 
29 726.868 0 
28 730.785 0 
27 730.735 0 
26 743.235 0 
25 748.96 0 
24 749.593 0 
23 729.161 0 
22 738 0 
20 741.41 0 
18 740.29 0 
16 725.65 0 
14 725.03 0 
12 738.58 0 
10 749.13 0 
8 741.85 0 
7 742.02 0 
4 756.95 0 
2 741.12 0 
DMA4700_SubashnagarExOHT 725.65 0 
DMA4748A_RajendranagarExOHT 741.41 0 
DMA4748_RajendranagarNewOHT 740.29 0 
DMA4600_KesareExOHT 725.03 0 
DMA4150_VeeranagereExOHT 749.13 0 
DMA4849_NRMohallaExOHT 742.02 0 
DMA4950_NRMohallaNewOHT 741.85 0 
DMA5200_UdayagiriNewOHT 741.12 0 
DMA5300RajivnagarIIStageExOHT 738.58 0 
DVRJ-11 748 0 
DVRJ-8 755 0 
DMA5400_RajivnagarIStageNewOHT 756.95 0 
DVRJ-4 725.38330078125 0 
DVRJ-1 757.5 0 
DVRJ-2 757.5 0 
DVRJ-3 757.5 0 
DVRJ-5 735.737854003906 0 
DVRJ-6 740.586120605469 0 
DVRJ-12 748.232116699219 0 
DVRJ-13 736.858703613281 0 
DVRJ-10 740.784484863281 0 
DVRJ-7 756.9 0 
DVRJ-9 738.314514160156 0 
300-A 758.774138443654 0 
300-B 758.774138443654 0 
301-A 758.665958712697 0 
301-B 758.665958712697 0 
302-A 758.837071191478 0 
302-B 758.837071191478 0 

[RESERVOIRS]
WTP_Pumping_station 738.83 

[TANKS]
34 758.3 19 18 24 14.5 2972.33934937764 
GPR_MDT 782.27 19.0000000000001 18.0000000000002 24.0000000000001 14.5 2972.33934937764 
GPR_MBR1 787.27 1 0 6 33 0.00283168463686774 
GPR_MBR2 787.27 1 0 6 34 0.00283168463686774 
GPR_MBR3 787.27 1 0 6 34 0.00283168463686774 
DVR_MBR2 758.3 1 0 6 34 0.00283168463686774 
DVR_MBR1 758.3 1 0 6 34 0.00283168463686774 
Rajendra_nagar2 741.41 13 12 18 14.5 1981.55956625176 
Rajendra_nagar1 740.29 13.0000000000001 12.0000000000001 18.5 17 2723.76083066235 
Bademakan 725.65 13 12 18 10.3 999.874693858024 
Kesare 725.03 13.0000000000001 12 17.9999999999999 10.3 999.874693858024 
Rajeev_Nagar_I 738.58 16 15 21 14.5 2476.9494578147 
Veeranageeri 749.13 13 11.9999999999999 18 10.3 999.874693858024 
NR_mohalla2 742.02 10 9 15 7.3 376.68481314705 
NR_Mohalla1 741.85 16 15 21 14.5 2476.9494578147 
Rajiv_nagar_II 756.95 10 9 15.5 17 2042.82062299676 
Tippu_Park 741.12 16 15 21 14.5 2476.9494578147 

[DEMANDS]
53 5 
20 33.44 Peak2.5 
18 38 Peak2.5 
16 17.9 Peak2.5 
14 24 Peak2.5 
12 23.33 
10 37 Peak2.5 
8 68.2 Peak2.5 
7 29 Peak2.5 
4 30 Peak2.5 
2 44 Peak2.5 

[EMITTERS]

[PUMPS]
62 DVR_MBR1 52 HEAD 62 SPEED 1  
61 DVR_MBR1 52 HEAD 61 SPEED 1  
60 DVR_MBR1 52 HEAD 60 SPEED 1  
59 GPR_MBR1 51 HEAD 59 SPEED 1  
58 GPR_MBR1 51 HEAD 58 SPEED 1  
56 GPR_MBR1 51 HEAD 56 SPEED 1  
23 WTP_Pumping_station 22 HEAD 23 SPEED 1  
22 WTP_Pumping_station 22 HEAD 22 SPEED 1  
21 WTP_Pumping_station 22 HEAD 21 SPEED 1  

[VALVES]
80 52 21 500 FCV 220 0 
78 DMA4150_VeeranagereExOHT 19 300 FCV 37 0 
76 DMA4849_NRMohallaExOHT 17 250 FCV 29 0 
74 DMA4950_NRMohallaNewOHT 15 350 FCV 68.2 0 
72 DMA5400_RajivnagarIStageNewOHT 13 300 FCV 56.5 0 
70 DMA4748A_RajendranagarExOHT 11 250 FCV 33.44 0 
68 DMA4748_RajendranagarNewOHT 9 350 FCV 38 0 
66 DMA4700_SubashnagarExOHT 6 150 FCV 17.9 0 
65 DMA4600_KesareExOHT 5 200 FCV 24 0 
40 DMA5200_UdayagiriNewOHT 3 250 FCV 44 0 
35 DMA5300RajivnagarIIStageExOHT 1 300 FCV 23.3 0 
34 32 36 1100 FCV 550 0 
FCV-1 51 33 250 FCV 30 0 
FCV-2 300-A 300-B 1100 FCV 150 0 
FCV-3 301-A 301-B 1100 FCV 150 0 
FCV-4 302-A 302-B 1100 FCV 150 0 

[PIPES]
DVRTMP23 DVRJ-7 DMA5400_RajivnagarIStageNewOHT 14.2250807730333 300 130 0 
DVRTMP4 DVRJ-3 DVRJ-7 686.523162728496 575 130 0 
84 21 34 10 500 130 0 
83 33 GPR_MDT 10 500 130 0 
79 19 Veeranageeri 10 300 130 0 
77 17 NR_mohalla2 1000 250 100 0 
75 15 NR_Mohalla1 10 350 130 0 
73 13 Rajiv_nagar_II 10 300 130 0 
71 11 Rajendra_nagar2 10 250 130 0 
69 9 Rajendra_nagar1 10 350 130 0 
67 6 Bademakan 10 150 130 0 
64 5 Kesare 10 200 130 0 
55 3 Tippu_Park 10 250 130 0 
11 1 Rajeev_Nagar_I 10 300 130 0 
54 GPR_MDT 53 1 457 100 0 
53 44 GPR_MBR3 10 500 130 0 
52 44 GPR_MBR2 10 500 130 0 
51 44 GPR_MBR1 10 500 130 0 
50 GPR_MBR2 50 10 457 130 0 
49 GPR_MBR3 49 10 350 130 0 
48 43 44 330 1100 130 0 
47 42 43 240 1100 130 0 
46 41 42 120 1100 130 0 
45 40 41 240 1100 130 0 
44 39 40 720 1100 130 0 
43 38 39 420 1100 130 0 
42 37 38 150 1100 130 0 
41 36 37 450 1100 130 0 
39 DVR_MBR2 35 10 1100 130 0 
33 31 32 300 1100 130 0 
32 30 31 270 1100 130 0 
31 29 30 210 1100 130 0 
30 28 29 90 1100 130 0 
29 27 28 210 1100 130 0 
28 26 27 100 1100 130 0 
27 25 26 290 1100 130 0 
26 24 25 450 1100 130 0 
25 23 24 150 1100 130 0 
24 22 23 210 1100 130 0 
20 Rajendra_nagar2 20 10 250 130 0 
18 Rajendra_nagar1 18 10 350 130 0 
16 Bademakan 16 10 150 130 0 
14 Kesare 14 10 200 130 0 
12 Rajeev_Nagar_I 12 10 300 130 0 
10 Veeranageeri 10 10 300 130 0 
8 NR_mohalla2 7 10 250 130 0 
7 NR_Mohalla1 8 10 350 130 0 
1 Rajiv_nagar_II 4 1000 300 130 0 
2 Tippu_Park 2 10 150 130 0 
DVRTMP18 DVRJ-11 DVRJ-12 122.003156956608 373 130 0 
DVRTMP17 DVRJ-10 DVRJ-11 1209.02815545849 474 130 0 
DVRTMP14 DVRJ-8 DVRJ-9 728.089282727841 474 130 0 
DVRTMP13 DVRJ-7 DVRJ-8 616.187795505966 575 130 0 
DVRTMP10 DVRJ-5 DMA4700_SubashnagarExOHT 713.513847043436 150 130 0 
DVRTMP9 DVRJ-5 DMA4600_KesareExOHT 988.872875154693 200 130 0 
DVRTMP8 DVRJ-4 DVRJ-5 2115.0327936 250 130 0 
DVRTMP7 DVRJ-4 DMA5300RajivnagarIIStageExOHT 329.462373991546 300 130 0 
DVRTMP6 DVRJ-1 DVRJ-4 886.325324098985 350 130 0 
DVRTMP1 34 DVRJ-1 14.1632677015082 350 130 0 
DVRTMP2 34 DVRJ-2 12.4690734416531 350 130 0 
DVRTMP3 34 DVRJ-3 14.7513166684416 500 130 0 
DVRTMP12 DVRJ-6 DMA4748A_RajendranagarExOHT 48.4589877449441 250 130 0 
DVRTMP11 DVRJ-6 DMA4748_RajendranagarNewOHT 29.7380671533225 350 130 0 
DVRTMP5 DVRJ-2 DVRJ-6 3246.16684073216 424 130 0 
DVRTMP19 DVRJ-12 DMA4150_VeeranagereExOHT 496.74086029739 300 130 0 
DVRTMP22 DVRJ-13 DMA4950_NRMohallaNewOHT 192.002838512832 350 130 0 
DVRTMP21 DVRJ-13 DMA4849_NRMohallaExOHT 177.747966106501 250 130 0 
DVRTMP20 DVRJ-10 DVRJ-13 1302.74491567486 424 130 0 
DVRTMP15 DVRJ-9 DVRJ-10 396.843852863401 474 130 0 
DVRTMP16 DVRJ-9 DMA5200_UdayagiriNewOHT 538.54854369901 250 130 0 
P-1 32 300-A 5.90911121050016 1100 130 0 
P-2 300-B DVR_MBR2 4.09088878949984 1100 130 0 
P-3 32 301-A 6.84328141435664 1100 130 0 
P-4 301-B DVR_MBR1 3.15671858564336 1100 130 0 
P-5 32 302-A 5.36653685026775 1100 130 0 
P-6 302-B 34 4.63346314973225 1100 130 0 

[STATUS]
61 CLOSED 
58 CLOSED 
22 CLOSED 

[COORDINATES]
33 683201.67 1361357.5  
21 683775.78 1364232.75  
19 680530.24 1362861.11  
17 680942.27 1363555.84  
15 681027.12 1363560.83  
13 683561.7 1363641.21  
11 680749.02 1363915.99  
9 680851.66 1364017.69  
6 680366.21 1363801.66  
5 681302.03 1365039.92  
3 682034.22 1363374.75  
1 683017.57 1364826.34  
53 683017.98 1361359.55  
52 683795.12 1364220.26  
51 683370.93 1361361.83  
50 684133.54 1361138.07  
49 684352.74 1361165.47  
44 684101.58 1361686.06  
43 684083.31 1362188.38  
42 684078.74 1362448.67  
41 684078.74 1362750.06  
40 684069.61 1363078.85  
39 684055.91 1363462.44  
38 684046.78 1363731.86  
37 684033.08 1363914.53  
36 684023.95 1364101.75  
35 683810.55 1364170.73  
32 684019.32 1364252.88  
31 684192.85 1364353.34  
30 684430.31 1364499.47  
29 684626.67 1364622.77  
28 684809.33 1364755.2  
27 685033.09 1364905.89  
26 685224.88 1365033.75  
25 685444.08 1365184.45  
24 685613.04 1365321.45  
23 685768.3 1365444.74  
22 685937.32 1365581.31  
20 680582.03 1364013.81  
18 680831.28 1364134.28  
16 680128.69 1363800.36  
14 681524.61 1365124.34  
12 683013.18 1364978.27  
10 680519.96 1362952.77  
8 681049.68 1363639.16  
7 680921.81 1363637.05  
4 683631.37 1363607.16  
2 682177.18 1363561.79  
DMA4700_SubashnagarExOHT 680506.73 1363811.27  
DMA4748A_RajendranagarExOHT 680881.1 1363850.04  
DMA4748_RajendranagarNewOHT 680885.68 1363896.99  
DMA4600_KesareExOHT 681284.19 1364886.37  
DMA4150_VeeranagereExOHT 680553.45 1362825.38  
DMA4849_NRMohallaExOHT 680985.89 1363525.17  
DMA4950_NRMohallaNewOHT 680995.26 1363523.67  
DMA5200_UdayagiriNewOHT 682075.43 1363290.23  
DMA5300RajivnagarIIStageExOHT 683015.05 1364752.43  
DVRJ-11 680993.7 1362403.83  
DVRJ-8 683074.72 1363421.51  
DMA5400_RajivnagarIStageNewOHT 683540.1 1363669.48  
DVRJ-4 682987.95 1364456.82  
DVRJ-1 683769.88 1364166.12  
DVRJ-2 683779.08 1364166.61  
DVRJ-3 683787.47 1364169.16  
DVRJ-5 680995.79 1363990.61  
DVRJ-6 680901.47 1363882.04  
DVRJ-12 680920.16 1362500.96  
DVRJ-13 681053.38 1363384.67  
DVRJ-10 682078.71 1362907.6  
DVRJ-7 683536.45 1363683.25  
DVRJ-9 682420.94 1363106.44  
WTP_Pumping_station 686170.22 1365763.97  
34 683763.92 1364235.67  
GPR_MDT 683156.3 1361357.27  
GPR_MBR1 683896.08 1361361.83  
GPR_MBR2 684124.41 1361352.7  
GPR_MBR3 684343.6 1361357.27  
DVR_MBR2 683821.23 1364191.53  
DVR_MBR1 683838.64 1364215.9  
Rajendra_nagar2 680731.58 1363932.81  
Rajendra_nagar1 680843.74 1364044.97  
Bademakan 680325.05 1363800.36  
Kesare 681305.42 1365124.34  
Rajeev_Nagar_I 683017.16 1364857.36  
Veeranageeri 680521.36 1362882.52  
NR_mohalla2 680927.43 1363578.04  
NR_Mohalla1 681044.76 1363578.04  
Rajiv_nagar_II 683578.96 1363633.19  
Tippu_Park 682024.45 1363432.19  
300-A 683902.375469565 1364216.27734122  
300-B 683902.375469565 1364216.27734122  
301-A 683895.948528201 1364226.27480557  
301-B 683895.948528201 1364226.27480557  
302-A 683882.380540877 1364241.98510668  
302-B 683882.380540877 1364241.98510668  

[VERTICES]
80 683785.45 1364226.505
78 680541.845 1362843.245
76 680964.08 1363540.505
74 681011.19 1363542.25
72 683550.9 1363655.345
70 680815.06 1363883.015
68 680868.67 1363957.34
66 680436.47 1363806.465
65 681293.11 1364963.145
40 682054.825 1363332.49
35 683016.31 1364789.385
34 684021.635 1364177.315
FCV-1 683286.3 1361359.665
62 683815.117496142 1364207.27838522
61 683816.565578496 1364215.05135896
60 683817.713247853 1364228.45989812
59 683621.342943623 1361241.87509993
58 683633.555660999 1361354.10845205
56 683669.444360608 1361531.35587685
23 686129.434880673 1365593.5728424
22 686067.690343487 1365655.18335595
21 685987.243230017 1365758.28705545
DVRTMP4 683789.27 1364130.31
DVRTMP4 683725.4 1364110.79
DVRTMP4 683576.54 1363867.43
DVRTMP4 683654.52 1363717.55
DVRTMP4 683651.31 1363714.17
DVRTMP4 683618.33 1363695.64
DVRTMP4 683604.03 1363688.87
DVRTMP4 683598.56 1363686.72
DVRTMP4 683588.61 1363686.04
DVRTMP4 683576.38 1363683.34
DVRTMP18 680989.23 1362407.67
DVRTMP18 680968.53 1362437.55
DVRTMP18 680923.38 1362497.05
DVRTMP17 682070.23 1362900.9
DVRTMP17 681906.47 1362782.67
DVRTMP17 681875.47 1362759.75
DVRTMP17 681865.46 1362748.78
DVRTMP17 681851.32 1362738.78
DVRTMP17 681809.85 1362710.48
DVRTMP17 681806.34 1362710.19
DVRTMP17 681802.28 1362708.78
DVRTMP17 681788.69 1362699.88
DVRTMP17 681760.91 1362681.27
DVRTMP17 681723.44 1362660.19
DVRTMP17 681672.7 1362638.14
DVRTMP17 681608.11 1362612.97
DVRTMP17 681497.43 1362570.35
DVRTMP17 681425.81 1362539.56
DVRTMP17 681362.63 1362513.22
DVRTMP17 681323.11 1362498.34
DVRTMP17 681275.06 1362480.29
DVRTMP17 681249.69 1362471.99
DVRTMP17 681143.34 1362443.7
DVRTMP17 681042.38 1362417.64
DVRTMP14 683046.19 1363405.54
DVRTMP14 682982.21 1363376.62
DVRTMP14 682903.98 1363349.9
DVRTMP14 682855.61 1363330.68
DVRTMP14 682822.35 1363318.95
DVRTMP14 682744.96 1363289.43
DVRTMP14 682715.83 1363276.56
DVRTMP14 682590.39 1363206.11
DVRTMP14 682464.25 1363129.22
DVRTMP13 683527.26 1363683.5
DVRTMP13 683526.45 1363678.37
DVRTMP13 683523.32 1363643.24
DVRTMP13 683523.42 1363630.72
DVRTMP13 683537.97 1363566
DVRTMP13 683273.49 1363505.98
DVRTMP13 683229.2 1363492.41
DVRTMP13 683136.35 1363453.92
DVRTMP13 683079.4 1363423.96
DVRTMP10 680995.27 1363988.09
DVRTMP10 680997.11 1363986.89
DVRTMP10 680996.63 1363982.82
DVRTMP10 680994.39 1363981.94
DVRTMP10 680989.12 1363982.1
DVRTMP10 680988.24 1363980.58
DVRTMP10 680936.34 1363758.43
DVRTMP10 680761 1363777.13
DVRTMP10 680727.77 1363785.36
DVRTMP10 680645.14 1363790.24
DVRTMP10 680610.99 1363790.85
DVRTMP10 680554.27 1363789.02
DVRTMP10 680507.93 1363783.53
DVRTMP10 680495.73 1363797.86
DVRTMP9 680991.3 1363999.47
DVRTMP9 681015.71 1364219.21
DVRTMP9 681021.2 1364265.86
DVRTMP9 681025.77 1364269.52
DVRTMP9 681034.92 1364322.88
DVRTMP9 681046.2 1364418.01
DVRTMP9 681049.56 1364425.64
DVRTMP9 681089.5 1364498.2
DVRTMP9 681117.86 1364548.21
DVRTMP9 681144.08 1364590.29
DVRTMP9 681183.11 1364650.05
DVRTMP9 681203.23 1364683.9
DVRTMP9 681216.65 1364714.69
DVRTMP9 681224.88 1364742.74
DVRTMP9 681235.25 1364786.65
DVRTMP9 681241.65 1364834.52
DVRTMP9 681249.1 1364888.7
DVRTMP8 682983.31 1364457.08
DVRTMP8 682970.57 1364444.09
DVRTMP8 682950.33 1364430.72
DVRTMP8 682821.65 1364367.31
DVRTMP8 682628.41 1364271.19
DVRTMP8 682608.59 1364261.28
DVRTMP8 682481.29 1364193.44
DVRTMP8 682354.37 1364129.79
DVRTMP8 682326.16 1364120.26
DVRTMP8 682308.31 1364115.22
DVRTMP8 682273.98 1364101.99
DVRTMP8 682043.06 1364013.5
DVRTMP8 682035.05 1364008.04
DVRTMP8 681963.83 1363966.28
DVRTMP8 681953.68 1363962.57
DVRTMP8 681933.97 1363957.89
DVRTMP8 681899.82 1363952.62
DVRTMP8 681836.59 1363945.79
DVRTMP8 681785.47 1363936.42
DVRTMP8 681732.19 1363930.57
DVRTMP8 681678.92 1363927.25
DVRTMP8 681610.23 1363927.25
DVRTMP8 681552.46 1363930.76
DVRTMP8 681531.58 1363929.59
DVRTMP8 681510.31 1363926.66
DVRTMP8 681486.31 1363929.4
DVRTMP8 681009.61 1363988.76
DVRTMP7 683042.55 1364753.77
DVRTMP6 683772.5 1364141.26
DVRTMP6 683702.59 1364123.73
DVRTMP6 683585.81 1364180.31
DVRTMP6 683391.07 1364282.74
DVRTMP6 683294.59 1364328
DVRTMP6 683188.4 1364365.61
DVRTMP12 680894.19 1363847.64
DVRTMP11 680903.61 1363893.26
DVRTMP5 683781.38 1364134.29
DVRTMP5 683731.55 1364122.47
DVRTMP5 683716.48 1364116.91
DVRTMP5 683674.93 1364047.73
DVRTMP5 683567.27 1363872.24
DVRTMP5 683554.86 1363885.05
DVRTMP5 683541.6 1363895.78
DVRTMP5 683534.76 1363900.46
DVRTMP5 683523.45 1363905.34
DVRTMP5 683508.23 1363909.63
DVRTMP5 683493.2 1363910.42
DVRTMP5 683429.77 1363910.35
DVRTMP5 683315.41 1363908.21
DVRTMP5 683124.05 1363904.84
DVRTMP5 683106.17 1363905.2
DVRTMP5 683095.19 1363907.16
DVRTMP5 682952.74 1363937.04
DVRTMP5 682809.43 1363967.53
DVRTMP5 682647.52 1364002.59
DVRTMP5 682348.21 1364065.81
DVRTMP5 682321.1 1364115.3
DVRTMP5 682309.98 1364113.42
DVRTMP5 682061.65 1364016.89
DVRTMP5 682042.56 1364009.98
DVRTMP5 681968.54 1363965.77
DVRTMP5 681955.2 1363960.05
DVRTMP5 681938.43 1363956.24
DVRTMP5 681908.7 1363951.29
DVRTMP5 681835.52 1363942.9
DVRTMP5 681820.87 1363939.67
DVRTMP5 681798.51 1363935.8
DVRTMP5 681775.28 1363932.8
DVRTMP5 681742.68 1363929.18
DVRTMP5 681691.35 1363925.43
DVRTMP5 681655.14 1363924.31
DVRTMP5 681615.05 1363924.81
DVRTMP5 681597.19 1363925.06
DVRTMP5 681576.33 1363927.06
DVRTMP5 681558.59 1363928.18
DVRTMP5 681553.35 1363928.68
DVRTMP5 681529.49 1363927.43
DVRTMP5 681509.39 1363924.06
DVRTMP5 680987.11 1363985.72
DVRTMP5 680984.84 1363984.66
DVRTMP5 680959.05 1363867.61
DVRTMP5 680906.61 1363881.27
DVRTMP19 680862.65 1362583.76
DVRTMP19 680792.81 1362642.49
DVRTMP19 680573.3 1362816.22
DVRTMP19 680558.02 1362817.13
DVRTMP22 681057.08 1363394.27
DVRTMP22 681083.94 1363418.63
DVRTMP22 681001.42 1363528.66
DVRTMP21 680965.67 1363507.26
DVRTMP20 682043.54 1362969.59
DVRTMP20 682015.71 1363019.9
DVRTMP20 681982.55 1363087.36
DVRTMP20 681968.54 1363250.48
DVRTMP20 681961.19 1363249.54
DVRTMP20 681777.35 1363230.52
DVRTMP20 681771.25 1363229.04
DVRTMP20 681745.64 1363227.33
DVRTMP20 681731.98 1363228.06
DVRTMP20 681701.24 1363232.21
DVRTMP20 681621.06 1363254.79
DVRTMP20 681527.69 1363278.13
DVRTMP20 681440.48 1363300.09
DVRTMP20 681302.62 1363339.45
DVRTMP20 681287.25 1363343.6
DVRTMP20 681243.83 1363351.4
DVRTMP20 681168.46 1363365.31
DVRTMP20 681065.77 1363382.62
DVRTMP15 682412.78 1363101.89
DVRTMP15 682313.61 1363054.21
DVRTMP15 682225.57 1363004.66
DVRTMP15 682170.18 1362973.92
DVRTMP15 682154.93 1362964.39
DVRTMP15 682134.89 1362947.77
DVRTMP16 682405.1 1363105.42
DVRTMP16 682259.75 1363373.03
DVRTMP16 682083.8 1363275.49

[OPTIONS]
UNITS LPS 
TRIALS 40 
ACCURACY 0.001 
EMITTER EXPONENT 0.5 
DAMPLIMIT 0 
MAXCHECK 10 
CHECKFREQ 2 
SPECIFIC GRAVITY 0.998 
HEADLOSS H-W 
QUALITY NONE 
DEMAND MULTIPLIER 1 

[TIMES]
REPORT START 0  
PATTERN TIMESTEP 0.5  
QUALITY TIMESTEP 0  

[MIXING]
34 MIXED 0 
GPR_MDT MIXED 0 
GPR_MBR1 MIXED 0 
GPR_MBR2 MIXED 0 
GPR_MBR3 MIXED 0 
DVR_MBR2 MIXED 0 
DVR_MBR1 MIXED 0 
Rajendra_nagar2 MIXED 0 
Rajendra_nagar1 MIXED 0 
Bademakan MIXED 0 
Kesare MIXED 0 
Rajeev_Nagar_I MIXED 0 
Veeranageeri MIXED 0 
NR_mohalla2 MIXED 0 
NR_Mohalla1 MIXED 0 
Rajiv_nagar_II MIXED 0 
Tippu_Park MIXED 0 

[ENERGY]
PUMP 62 EFFIC 62E 
PUMP 61 EFFIC 61E 
PUMP 60 EFFIC 60E 
PUMP 59 EFFIC 59E 
PUMP 58 EFFIC 58E 
PUMP 56 EFFIC 56E 
PUMP 23 EFFIC 23E 
PUMP 22 EFFIC 22E 
PUMP 21 EFFIC 21E 

