[TITLE]
Scenario: Base                     
Date: 6/2/2014 4:57:00 PM                     

[JUNCTIONS]
 21                                  783.0000
 19                                  749.1300
 17                                  742.0200
 15                                  741.8500
 13                                  756.9500
 3                                   741.1200
 52                                  783.0000
 10                                  749.1300
 8                                   741.8500
 7                                   742.0200
 4                                   756.9500
 2                                   741.1200
 DMA4150_VeeranagereExOHT            749.1300
 DMA4849_NRMohallaExOHT              742.0200
 DMA4950_NRMohallaNewOHT             741.8500
 DMA5200_UdayagiriNewOHT             741.1200
 DVRJ-11                             748.0000
 DVRJ-8                              755.0000
 DMA5400_RajivnagarIStageNewOHT      756.9500
 DVRJ-3                              757.5000
 DVRJ-12                             748.2321
 DVRJ-13                             736.8587
 DVRJ-10                             740.7845
 DVRJ-7                              756.9000
 DVRJ-9                              738.3145
 301-B                               758.6660
 47                                  757.5000
 1                                     0.0000
 5                                     0.0000

[RESERVOIRS]

[TANKS]
 34                                  783.0000      19.0000      18.0000      24.0000      14.5000    2972.3393 
 Veeranageeri                        749.1300      13.0000      12.0000      18.0000      10.3000     999.8747 
 NR_mohalla2                         742.0200      10.0000       9.0000      15.0000       7.3000     376.6848 
 NR_Mohalla1                         741.8500      16.0000      15.0000      21.0000      14.5000    2476.9495 
 Rajiv_nagar_II                      773.3500      10.0000       9.0000      15.5000      17.0000    2042.8206 
 Tippu_Park                          741.1200      16.0000      15.0000      21.0000      14.5000    2476.9495 

[PIPES]
 DVRTMP23                        DVRJ-7                          DMA5400_RajivnagarIStageNewOHT       14.2251     300.0000     130.0000       0.0000 
 DVRTMP4                         DVRJ-3                          DVRJ-7                              686.5232     575.0000     130.0000       0.0000 
 84                              21                              34                                   10.0000     500.0000     130.0000       0.0000 
 79                              19                              Veeranageeri                         10.0000     300.0000     130.0000       0.0000 
 77                              17                              NR_mohalla2                        1000.0000     250.0000     100.0000       0.0000 
 75                              15                              NR_Mohalla1                          10.0000     350.0000     130.0000       0.0000 
 73                              13                              Rajiv_nagar_II                       10.0000     300.0000     130.0000       0.0000 
 55                              3                               Tippu_Park                           10.0000     250.0000     130.0000       0.0000 
 10                              Veeranageeri                    10                                   10.0000     300.0000     130.0000       0.0000 
 8                               NR_mohalla2                     7                                    10.0000     250.0000     130.0000       0.0000 
 7                               NR_Mohalla1                     8                                    10.0000     350.0000     130.0000       0.0000 
 1                               Rajiv_nagar_II                  4                                  1000.0000     300.0000     130.0000       0.0000 
 2                               Tippu_Park                      2                                    10.0000     150.0000     130.0000       0.0000 
 DVRTMP18                        DVRJ-11                         DVRJ-12                             122.0032     373.0000     130.0000       0.0000 
 DVRTMP17                        DVRJ-10                         DVRJ-11                            1209.0282     474.0000     130.0000       0.0000 
 DVRTMP14                        DVRJ-8                          DVRJ-9                              728.0893     474.0000     130.0000       0.0000 
 DVRTMP3                         34                              47                                   14.7513     500.0000     130.0000       0.0000 
 DVRTMP19                        DVRJ-12                         DMA4150_VeeranagereExOHT            496.7409     300.0000     130.0000       0.0000 
 DVRTMP22                        DVRJ-13                         DMA4950_NRMohallaNewOHT             192.0028     350.0000     130.0000       0.0000 
 DVRTMP21                        DVRJ-13                         DMA4849_NRMohallaExOHT              177.7480     250.0000     130.0000       0.0000 
 DVRTMP20                        5                               DVRJ-13                            1302.7449     424.0000     130.0000       0.0000 
 DVRTMP15                        DVRJ-9                          DVRJ-10                             396.8439     474.0000     130.0000       0.0000 
 DVRTMP16                        DVRJ-9                          DMA5200_UdayagiriNewOHT             538.5485     250.0000     130.0000       0.0000 
 4                               1                               DVRJ-8                              618.0000     575.0000     130.0000       0.0000 

[PUMPS]
 62                              301-B                           52                               HEAD 62
 61                              301-B                           52                               HEAD 61
 60                              301-B                           52                               HEAD 60

[VALVES]
 80                              52                              21                                  500.0000   FCV       0.0000       0.0000
 78                              DMA4150_VeeranagereExOHT        19                                  300.0000   FCV       0.0000       0.0000
 76                              DMA4849_NRMohallaExOHT          17                                  250.0000   FCV      16.0000       0.0000
 74                              DMA4950_NRMohallaNewOHT         15                                  350.0000   FCV       0.0000       0.0000
 72                              DMA5400_RajivnagarIStageNewOHT  13                                  300.0000   FCV       0.0000       0.0000
 40                              DMA5200_UdayagiriNewOHT         3                                   250.0000   FCV      41.5000       0.0000
 6                               47                              DVRJ-3                              600.0000   FCV     240.0000       0.0000
 3                               DVRJ-7                          1                                   575.0000   FCV     152.0500       0.0000
 5                               DVRJ-10                         5                                   424.0000   FCV      79.0000       0.0000

[DEMANDS]
 21                                    0.000000 
 19                                    0.000000 
 17                                    0.000000 
 15                                    0.000000 
 13                                    0.000000 
 3                                     0.000000 
 52                                    0.000000 
 10                                   31.250000 
 8                                    63.300000 
 7                                    16.000000 
 4                                    87.000000 
 2                                    41.500000 
 DMA4150_VeeranagereExOHT              0.000000 
 DMA4849_NRMohallaExOHT                0.000000 
 DMA4950_NRMohallaNewOHT               0.000000 
 DMA5200_UdayagiriNewOHT               0.000000 
 DVRJ-11                               0.000000 
 DVRJ-8                                0.000000 
 DMA5400_RajivnagarIStageNewOHT        0.000000 
 DVRJ-3                                0.000000 
 DVRJ-12                               0.000000 
 DVRJ-13                               0.000000 
 DVRJ-10                               0.000000 
 DVRJ-7                                0.000000 
 DVRJ-9                                0.000000 
 301-B                              -240.000000 
 47                                    0.000000 
 1                                     0.000000 
 5                                     0.000000 

[EMITTERS]

[STATUS]
 61                              closed
 80                              open
 78                              open
 74                              open
 72                              open

[PATTERNS]
 Peak2.5                               0.2000       0.2000       0.2000       0.2000       0.4000       1.0000
 Peak2.5                               2.0000       2.5000       2.5000       2.0000       1.0000       1.0000
 Peak2.5                               0.8000       0.8000       1.0000       0.6000       0.8000       1.0000
 Peak2.5                               1.5000       1.5000       1.0000       0.8000       0.6000       0.4000
 Peak2.5                               0.2000       0.2000       0.2000       0.2000       0.4000       1.0000
 Peak2.5                               2.0000       2.5000       2.5000       2.0000       1.0000       1.0000
 Peak2.5                               0.8000       0.8000       1.0000       0.6000       0.8000       1.0000
 Peak2.5                               1.5000       1.5000       1.0000       0.8000       0.6000       0.4000

[CURVES]
 62                                  150.0000      30.0000
 62E                                 150.0000      75.0000
 61                                  150.0000      30.0000
 61E                                 150.0000      75.0000
 60                                  150.0000      30.0000
 60E                                 150.0000      75.0000
 59                                  170.0000      30.0000
 59E                                 170.0000      75.0000
 58                                  170.0000      30.0000
 58E                                 170.0000      75.0000
 56                                  170.0000      30.0000
 56E                                 170.0000      75.0000
 23                                  578.0000      98.0000
 23E                                 578.0000      75.0000
 22                                  578.0000      98.0000
 22E                                 578.0000      75.0000
 21                                  578.0000      98.0000
 21E                                 578.0000      75.0000

[CONTROLS]

[QUALITY]

[SOURCES]

[MIXING]
 34                              MIXED          1.0000
 Veeranageeri                    MIXED          1.0000
 NR_mohalla2                     MIXED          1.0000
 NR_Mohalla1                     MIXED          1.0000
 Rajiv_nagar_II                  MIXED          1.0000
 Tippu_Park                      MIXED          1.0000

[REACTIONS]
 ORDER  BULK            1.00
 ORDER  WALL            1
 ORDER  TANK            1.00
 GLOBAL BULK            0.000000
 GLOBAL WALL            0.000000

[ENERGY]
 GLOBAL EFFIC        75.0000
 DEMAND CHARGE       0.0000
 PUMP 62                              EFFIC   62E
 PUMP 61                              EFFIC   61E
 PUMP 60                              EFFIC   60E

[TIMES]
 DURATION            0:00:01
 HYDRAULIC TIMESTEP  1:00:00
 QUALITY TIMESTEP    0:06:00
 REPORT TIMESTEP     1:00:00
 REPORT START        0:00:00
 PATTERN TIMESTEP    1:00:00
 PATTERN START       0:00:00
 RULE TIMESTEP       0:06:00
 START CLOCKTIME     0:00:00
 STATISTIC           NONE

[OPTIONS]
 UNITS               LPS
 PRESSURE            METERS
 HEADLOSS            H-W
 UNBALANCED          CONTINUE 10
 QUALITY             NONE
 DEMAND MULTIPLIER   1.0000
 EMITTER EXPONENT    0.5000
 VISCOSITY           1.000000
 DIFFUSIVITY         1.000000
 SPECIFIC GRAVITY    0.998000
 TRIALS              40
 ACCURACY            0.00100000
 TOLERANCE           0.01000000
 CHECKFREQ           2
 MAXCHECK            10
 DAMPLIMIT           0.00000000

[REPORT]
 PAGESIZE            0
 STATUS              NO
 SUMMARY             NO
 ENERGY              NO
 NODES               NONE
 LINKS               NONE
 Elevation           NO
 Demand              PRECISION 2
 Head                PRECISION 2
 Pressure            PRECISION 2
 Quality             NO
 Length              NO
 Diameter            NO
 Flow                PRECISION 2
 Velocity            PRECISION 2
 Headloss            PRECISION 2
 Quality             NO
 State               NO
 Setting             NO
 Reaction            NO
[TAGS]                  
[RULES]                  
[COORDINATES]                  
;Node            	X-Coord         	Y-Coord                  
 21              	683775.78       	1364232.75                        
 19              	680530.24       	1362861.11                        
 17              	680942.27       	1363555.84                        
 15              	681027.12       	1363560.83                        
 13              	683561.70       	1363641.21                        
 3               	682034.22       	1363374.75                        
 52              	683795.12       	1364220.26                        
 10              	680519.96       	1362952.77                        
 8               	681051.65       	1363639.90                        
 7               	680921.81       	1363637.05                        
 4               	683631.37       	1363607.16                        
 2               	682177.41       	1363564.02                        
 DMA4150_VeeranagereExOHT	680553.45       	1362825.38                        
 DMA4849_NRMohallaExOHT	680985.89       	1363525.17                        
 DMA4950_NRMohallaNewOHT	680995.26       	1363523.67                        
 DMA5200_UdayagiriNewOHT	682075.43       	1363290.23                        
 DVRJ-11         	680993.70       	1362403.83                        
 DVRJ-8          	683074.72       	1363421.51                        
 DMA5400_RajivnagarIStageNewOHT	683540.10       	1363669.48                        
 DVRJ-3          	683788.30       	1364157.32                        
 DVRJ-12         	680920.16       	1362500.96                        
 DVRJ-13         	681053.38       	1363384.67                        
 DVRJ-10         	682078.71       	1362907.60                        
 DVRJ-7          	683536.45       	1363683.25                        
 DVRJ-9          	682420.94       	1363106.44                        
 301-B           	683895.95       	1364226.27                        
 47              	683783.71       	1364172.03                        
 1               	683524.22       	1363637.47                        
 5               	682044.16       	1362968.43                        
 34              	683763.92       	1364235.67                        
 Veeranageeri    	680521.36       	1362882.52                        
 NR_mohalla2     	680927.43       	1363578.04                        
 NR_Mohalla1     	681044.76       	1363578.04                        
 Rajiv_nagar_II  	683578.96       	1363633.19                        
 Tippu_Park      	682024.45       	1363432.19                        
[VERTICES]                  
;Link            	X-Coord         	Y-Coord                  
 DVRTMP4         	683789.27       	1364130.31                        
 DVRTMP4         	683725.40       	1364110.79                        
 DVRTMP4         	683576.54       	1363867.43                        
 DVRTMP4         	683654.52       	1363717.55                        
 DVRTMP4         	683651.31       	1363714.17                        
 DVRTMP4         	683618.33       	1363695.64                        
 DVRTMP4         	683604.03       	1363688.87                        
 DVRTMP4         	683598.56       	1363686.72                        
 DVRTMP4         	683588.61       	1363686.04                        
 DVRTMP4         	683576.38       	1363683.34                        
 DVRTMP18        	680989.23       	1362407.67                        
 DVRTMP18        	680968.53       	1362437.55                        
 DVRTMP18        	680923.38       	1362497.05                        
 DVRTMP17        	682070.23       	1362900.90                        
 DVRTMP17        	681906.47       	1362782.67                        
 DVRTMP17        	681875.47       	1362759.75                        
 DVRTMP17        	681865.46       	1362748.78                        
 DVRTMP17        	681851.32       	1362738.78                        
 DVRTMP17        	681809.85       	1362710.48                        
 DVRTMP17        	681806.34       	1362710.19                        
 DVRTMP17        	681802.28       	1362708.78                        
 DVRTMP17        	681788.69       	1362699.88                        
 DVRTMP17        	681760.91       	1362681.27                        
 DVRTMP17        	681723.44       	1362660.19                        
 DVRTMP17        	681672.70       	1362638.14                        
 DVRTMP17        	681608.11       	1362612.97                        
 DVRTMP17        	681497.43       	1362570.35                        
 DVRTMP17        	681425.81       	1362539.56                        
 DVRTMP17        	681362.63       	1362513.22                        
 DVRTMP17        	681323.11       	1362498.34                        
 DVRTMP17        	681275.06       	1362480.29                        
 DVRTMP17        	681249.69       	1362471.99                        
 DVRTMP17        	681143.34       	1362443.70                        
 DVRTMP17        	681042.38       	1362417.64                        
 DVRTMP14        	683046.19       	1363405.54                        
 DVRTMP14        	682982.21       	1363376.62                        
 DVRTMP14        	682903.98       	1363349.90                        
 DVRTMP14        	682855.61       	1363330.68                        
 DVRTMP14        	682822.35       	1363318.95                        
 DVRTMP14        	682744.96       	1363289.43                        
 DVRTMP14        	682715.83       	1363276.56                        
 DVRTMP14        	682590.39       	1363206.11                        
 DVRTMP14        	682464.25       	1363129.22                        
 DVRTMP19        	680862.65       	1362583.76                        
 DVRTMP19        	680792.81       	1362642.49                        
 DVRTMP19        	680573.30       	1362816.22                        
 DVRTMP19        	680558.02       	1362817.13                        
 DVRTMP22        	681057.08       	1363394.27                        
 DVRTMP22        	681083.94       	1363418.63                        
 DVRTMP22        	681001.42       	1363528.66                        
 DVRTMP21        	680965.67       	1363507.26                        
 DVRTMP20        	682043.54       	1362969.59                        
 DVRTMP20        	682015.71       	1363019.90                        
 DVRTMP20        	681982.55       	1363087.36                        
 DVRTMP20        	681968.54       	1363250.48                        
 DVRTMP20        	681961.19       	1363249.54                        
 DVRTMP20        	681777.35       	1363230.52                        
 DVRTMP20        	681771.25       	1363229.04                        
 DVRTMP20        	681745.64       	1363227.33                        
 DVRTMP20        	681731.98       	1363228.06                        
 DVRTMP20        	681701.24       	1363232.21                        
 DVRTMP20        	681621.06       	1363254.79                        
 DVRTMP20        	681527.69       	1363278.13                        
 DVRTMP20        	681440.48       	1363300.09                        
 DVRTMP20        	681302.62       	1363339.45                        
 DVRTMP20        	681287.25       	1363343.60                        
 DVRTMP20        	681243.83       	1363351.40                        
 DVRTMP20        	681168.46       	1363365.31                        
 DVRTMP20        	681065.77       	1363382.62                        
 DVRTMP15        	682412.78       	1363101.89                        
 DVRTMP15        	682313.61       	1363054.21                        
 DVRTMP15        	682225.57       	1363004.66                        
 DVRTMP15        	682170.18       	1362973.92                        
 DVRTMP15        	682154.93       	1362964.39                        
 DVRTMP15        	682134.89       	1362947.77                        
 DVRTMP16        	682405.10       	1363105.42                        
 DVRTMP16        	682259.75       	1363373.03                        
 DVRTMP16        	682083.80       	1363275.49                        
 4               	683522.46       	1363571.97                        
 4               	683212.97       	1363500.96                        
 62              	683815.12       	1364207.28                        
 61              	683816.57       	1364215.05                        
 60              	683817.71       	1364228.46                        
 80              	683785.45       	1364226.51                        
 78              	680541.85       	1362843.25                        
 76              	680964.08       	1363540.51                        
 74              	681011.19       	1363542.25                        
 72              	683550.90       	1363655.35                        
 40              	682054.83       	1363332.49                        
 3               	683525.64       	1363680.84                        
[LABELS]                  
;X-Coord           Y-Coord          Label & Anchor Node                  
[BACKDROP]                  
 DIMENSIONS     	679826.61       	1360906.78      	686472.30       	1365995.27                        
 UNITS          	None                  
 FILE           	                  
 OFFSET         	0.00            	0.00                              

[END]